%NProcShared=4
#t hf/3-21g sp 
 
benzene 1e-
 
1 2
6     -0.750662  1.163491     -0.000003
6     -1.382859  -0.068177     0.000069
6     0.632579  1.231729     -0.000032
6     -0.632544  -1.231535     -0.000046
6     0.750541  -1.163575     -0.000049
6     1.382958  0.068148     0.000078
1     -1.331797  2.064444     -0.000311
1     1.122164  2.185484     -0.000140
1     1.331607  -2.064596     -0.000429
1     2.453795  0.120772     0.000423
1     -2.453685  -0.121305     0.000180
1     -1.122159  -2.185282     0.000181

