%NProcShared=4
#t hf/3-21g opt 
 
benzene
 
0 1
C         -1.91944        3.22031        0.00000
C         -0.66308        3.28994        0.00000
C         -2.23032        2.38434        0.59109
C         -0.31266        3.41268        1.00352
C         -0.62354        2.57670        1.59461
C         -1.83256        2.25281        1.94409
H         -2.55213        3.86913       -0.49372
H         -2.83131        1.66024        0.16739
H          0.12755        1.95210        1.92742
H         -2.30216        2.00547        2.82915
H         -0.06340        3.23688       -0.83821
H          0.23969        4.21346        1.34800

